power-flow-agent/results/ieee14/2026-09-16/no-llm/rule_based/traces/11_case14-multistep-002-s0.transcript.txt
==============================================================================
TRANSCRIPT  rule_based  |  none:rule_based  |  case14  |  case14-multistep-002-s0  run 0
==============================================================================
date: 2026-09-16   seed: 0   difficulty: multistep   tool variant: None

[system]   no LLM; deterministic parser (baselines/rule_based.py)

[user]
Load the 14-bus test case (case14), disconnect the line between bus 6 and bus 13, disconnect the line between bus 12 and bus 13, and finally rerun the power flow, then list every line whose loading is above 100%.

[planner output]
[
 {
  "tool": "load_case",
  "args": {
   "case_name": "case14"
  }
 },
 {
  "tool": "disconnect_line",
  "args": {
   "from_bus": 6,
   "to_bus": 13
  }
 },
 {
  "tool": "disconnect_line",
  "args": {
   "from_bus": 12,
   "to_bus": 13
  }
 },
 {
  "tool": "run_powerflow",
  "args": {},
  "derive": {
   "kind": "lines_above_loading",
   "threshold_percent": 100.0
  }
 }
]

--- round 1 ---
[tool load_case]   (gate: not applied)
{"case_name": "case14", "n_buses": 14, "n_generators": 5, "n_lines": 20, "n_loads": 11, "total_load_mw": 257.9016499664761, "total_gen_capacity_mw": 772.4000000000001}
[tool disconnect_line]   (gate: pass)
{"case_name": "case14", "converged": true, "bus_voltages": [{"bus_id": 1, "vm_pu": 1.06, "va_deg": 0.0, "is_violation": true, "violation_type": "overvoltage"}, {"bus_id": 2, "vm_pu": 1.045, "va_deg": -5.078737433931405, "is_violation": false, "violation_type": null}, {"bus_id": 3, "vm_pu": 1.0100000000000002, "va_deg": -12.647837995534328, "is_violation": false, "violation_type": null}, {"bus_id": 4, "vm_pu": 1.0158278977170916, "va_deg": -10.355236872089678, "is_violation": false, "violation_type": null}, {"bus_id": 5, "vm_pu": 1.018632751658787, "va_deg": -8.783985365279237, "is_violation": false, "violation_type": null}, {"bus_id": 6, "vm_pu": 1.0700000000000003, "va_deg": -13.9670362313007, "is_violation": true, "violation_type": "overvoltage"}, {"bus_id": 7, "vm_pu": 1.0565177995698398, "va_deg": -13.746888864948962, "is_violation": true, "violation_type": "overvoltage"}, {"bus_id": 8, "vm_pu": 1.0900000000000003, "va_deg": -13.74688886494896, "is_violation": true, "violation_type": "overvoltage"}, {"bus_id": 9, "vm_pu": 1.0464482122580228, "va_deg": -15.517107263583844, "is_violation": false, "violation_type": null}, {"bus_id": 10, "vm_pu": 1.0426933137692682, "va_deg": -15.536419013762396, "is_violation": false, "violation_type": null}, {"bus_id": 11, "vm_pu": 1.0523720169803583, "va_deg": -14.885470655109883, "is_violation": true, "violation_type": "overvoltage"}, {"bus_id": 12, "vm_pu": 1.0344973552759746, "va_deg": -16.09614870743432, "is_violation": false, "violation_type": null}, {"bus_id": 13, "vm_pu": 0.9999656232314308, "va_deg": -17.077336226113477, "is_violation": false, "violation_type": null}, {"bus_id": 14, "vm_pu": 1.0072109529498068, "va_deg": -17.273515398099704, "is_violation": false, "violation_type": null}], "line_flows": [{"line_id": 0, "from_bus": 1, "to_bus": 2, "p_from_mw": 159.79060428609404, "q_from_mvar": -21.08118150969417, "loading_percent": 1.535879796673424, "is_violation": false}, {"line_id": 1, "from_bus": 1, "to_bus": 5, "p_from_mw": 75.62764422463583, "q_from_mvar": 4.253497503995709, "loading_percent": 0.7226751884883515, "is_violation": false}, {"line_id": 2, "from_bus": 2, "to_bus": 3, "p_from_mw": 71.67537343856127, "q_from_mvar": 3.716043034005461, "loading_percent": 0.6946343263569124, "is_violation": false}, {"line_id": 3, "from_bus": 2, "to_bus": 4, "p_from_mw": 55.83987044093844, "q_from_mvar": -0.4189577336128891, "loading_percent": 0.5397655222627418, "is_violation": false}, {"line_id": 4, "from_bus": 2, "to_bus": 5, "p_from_mw": 40.79486419488666, "q_from_mvar": 1.875554060010511, "loading_percent": 0.396886257485083, "is_violation": false}, {"line_id": 5, "from_bus": 3, "to_bus": 4, "p_from_mw": -21.809466642100954, "q_from_mvar": 4.930704874745979, "loading_percent": 0.2266150976539627, "is_violation": false}, {"line_id": 6, "from_bus": 4, "to_bus": 5, "p_from_mw": -62.90799782173799, "q_from_mvar": 14.101253613983886, "loading_percent": 0.6410561989415945, "is_violation": false}, {"line_id": 7, "from_bus": 6, "to_bus": 11, "p_from_mw": 11.105357280144739, "q_from_mvar": 4.252759645093667, "loading_percent": 0.11226093404427953, "is_violation": false}, {"line_id": 8, "from_bus": 6, "to_bus": 12, "p_from_mw": 18.97407633468623, "q_from_mvar": 6.032193464252782, "loading_percent": 0.18795308396132962, "is_violation": false}, {"line_id": 9, "from_bus": 6, "to_bus": 13, "p_from_mw": 0.0, "q_from_mvar": 0.0, "loading_percent": 0.0, "is_violation": false}, {"line_id": 10, "from_bus": 9, "to_bus": 10, "p_from_mw": 1.9144646595962995, "q_from_mvar": 3.929440924534465, "loading_percent": 0.042191826361986734, "is_violation": false}, {"line_id": 11, "from_bus": 9, "to_bus": 14, "p_from_mw": 15.70286899641815, "q_from_mvar": 7.986922889926569, "loading_percent": 0.17005431454363495, "is_violation": false}, {"line_id": 12, "from_bus": 10, "to_bus": 11, "p_from_mw": -7.373731777424547, "q_from_mvar": -2.06745194817869, "loading_percent": 0.07418710836885051, "is_violation": false}, {"line_id": 13, "from_bus": 12, "to_bus": 13, "p_from_mw": 12.918495501348104, "q_from_mvar": 3.669765214240781, "loading_percent": 0.13112912286974307, "is_violation": false}, {"line_id": 14, "from_bus": 13, "to_bus": 14, "p_from_mw": -0.024766385851009414, "q_from_mvar": -2.0679396614777, "loading_percent": 0.02089049553876692, "is_violation": false}, {"line_id": 100000, "from_bus": 4, "to_bus": 7, "p_from_mw": 31.04541826656214, "q_from_mvar": -7.9412999427442825, "loading_percent": 0.3186434467094819, "is_violation": false}, {"line_id": 100001, "from_bus": 4, "to_bus": 9, "p_from_mw": 17.74579840301223, "q_from_mvar": 1.153854068356917, "loading_percent": 0.17683015401912844, "is_violation": false}, {"line_id": 100002, "from_bus": 5, "to_bus": 6, "p_from_mw": 41.919958842601964, "q_from_mvar": 11.851815320327765, "loading_percent": 0.43198283996385684, "is_violation": false}, {"line_id": 100003, "from_bus": 7, "to_bus": 8, "p_from_mw": -1.6782898253208843e-14, "q_from_mvar": -20.082055477280445, "loading_percent": 0.19199775461203283, "is_violation": false}, {"line_id": 100004, "from_bus": 7, "to_bus": 9, "p_from_mw": 31.04541826481757, "q_from_mvar": 10.150294634795461, "loading_percent": 0.3122762466546948, "is_violation": false}], "total_generation_mw": 272.10173076475917, "total_load_mw": 257.9016499664761, "total_loss_mw": 14.200080847072432, "voltage_violations": [{"bus_id": 1, "vm_pu": 1.06, "va_deg": 0.0, "is_violation": true, "violation_type": "overvoltage"}, {"bus_id": 6, "vm_pu": 1.0700000000000003, "va_deg": -13.9670362313007, "is_violation": true, "violation_type": "overvoltage"}, {"bus_id": 7, "vm_pu": 1.0565177995698398, "va_deg": -13.746888864948962, "is_violation": true, "violation_type": "overvoltage"}, {"bus_id": 8, "vm_pu": 1.0900000000000003, "va_deg": -13.74688886494896, "is_violation": true, "violation_type": "overvoltage"}, {"bus_id": 11, "vm_pu": 1.0523720169803583, "va_deg": -14.885470655109883, "is_violation": true, "violation_type": "overvoltage"}], "thermal_violations": [], "summary_text": "", "solver_backend": "pandapower", "llm_prompt": null, "llm_response": null}
[tool disconnect_line]   (gate: pass)
{"case_name": "case14", "converged": true, "bus_voltages": [{"bus_id": 1, "vm_pu": 1.06, "va_deg": 0.0, "is_violation": true, "violation_type": "overvoltage"}, {"bus_id": 2, "vm_pu": 1.0449999999999997, "va_deg": -5.117618104783695, "is_violation": false, "violation_type": null}, {"bus_id": 3, "vm_pu": 1.01, "va_deg": -12.753369686587481, "is_violation": false, "violation_type": null}, {"bus_id": 4, "vm_pu": 1.0131310249345016, "va_deg": -10.457148138236487, "is_violation": false, "violation_type": null}, {"bus_id": 5, "vm_pu": 1.0175891481597745, "va_deg": -8.762639522165806, "is_violation": false, "violation_type": null}, {"bus_id": 6, "vm_pu": 1.07, "va_deg": -13.168995151035, "is_violation": true, "violation_type": "overvoltage"}, {"bus_id": 7, "vm_pu": 1.0496094708654076, "va_deg": -14.384338501607505, "is_violation": false, "violation_type": null}, {"bus_id": 8, "vm_pu": 1.09, "va_deg": -14.384338501607505, "is_violation": true, "violation_type": "overvoltage"}, {"bus_id": 9, "vm_pu": 1.0335391805475238, "va_deg": -16.45387310256132, "is_violation": false, "violation_type": null}, {"bus_id": 10, "vm_pu": 1.0314655425976123, "va_deg": -16.161425713140538, "is_violation": false, "violation_type": null}, {"bus_id": 11, "vm_pu": 1.0460577695045876, "va_deg": -14.796006319940933, "is_violation": false, "violation_type": null}, {"bus_id": 12, "vm_pu": 1.0598406056306475, "va_deg": -13.80496074248316, "is_violation": true, "violation_type": "overvoltage"}, {"bus_id": 13, "vm_pu": 0.9177952034788057, "va_deg": -22.269000114693146, "is_violation": true, "violation_type": "undervoltage"}, {"bus_id": 14, "vm_pu": 0.9624220208464225, "va_deg": -20.029431481119147, "is_violation": false, "violation_type": null}], "line_flows": [{"line_id": 0, "from_bus": 1, "to_bus": 2, "p_from_mw": 160.9667542044341, "q_from_mvar": -21.353518098182995, "loading_percent": 1.54733117969357, "is_violation": false}, {"line_id": 1, "from_bus": 1, "to_bus": 5, "p_from_mw": 75.49377661227855, "q_from_mvar": 4.748601769407083, "loading_percent": 0.7220359136945435, "is_violation": false}, {"line_id": 2, "from_bus": 2, "to_bus": 3, "p_from_mw": 72.2757585440918, "q_from_mvar": 3.6555857878413636, "loading_percent": 0.7003047469799648, "is_violation": false}, {"line_id": 3, "from_bus": 2, "to_bus": 4, "p_from_mw": 56.791880792750185, "q_from_mvar": 0.9199839567134875, "loading_percent": 0.5491120283092377, "is_violation": false}, {"line_id": 4, "from_bus": 2, "to_bus": 5, "p_from_mw": 40.35183396647925, "q_from_mvar": 2.605335143030925, "loading_percent": 0.3936962439483265, "is_violation": false}, {"line_id": 5, "from_bus": 3, "to_bus": 4, "p_from_mw": -21.24595462262113, "q_from_mvar": 6.3027684945598486, "loading_percent": 0.22545288084853746, "is_violation": false}, {"line_id": 6, "from_bus": 4, "to_bus": 5, "p_from_mw": -68.56511823823486, "q_from_mvar": 12.081729941797642, "loading_percent": 0.6941321104882321, "is_violation": false}, {"line_id": 7, "from_bus": 6, "to_bus": 11, "p_from_mw": 18.107470181816467, "q_from_mvar": 4.4600101876494325, "loading_percent": 0.17604692294858287, "is_violation": false}, {"line_id": 8, "from_bus": 6, "to_bus": 12, "p_from_mw": 5.667095052353354, "q_from_mvar": 1.553880909736685, "loading_percent": 0.055473113002457934, "is_violation": false}, {"line_id": 9, "from_bus": 6, "to_bus": 13, "p_from_mw": 0.0, "q_from_mvar": 0.0, "loading_percent": 0.0, "is_violation": false}, {"line_id": 10, "from_bus": 9, "to_bus": 10, "p_from_mw": -4.798450350743586, "q_from_mvar": 4.359124124454975, "loading_percent": 0.06335815393703156, "is_violation": false}, {"line_id": 11, "from_bus": 9, "to_bus": 14, "p_from_mw": 29.533002000555037, "q_from_mvar": 14.01702556551949, "loading_percent": 0.3194925448210922, "is_violation": false}, {"line_id": 12, "from_bus": 10, "to_bus": 11, "p_from_mw": -14.093612054845996, "q_from_mvar": -1.6562712640844617, "loading_percent": 0.1389667327437521, "is_violation": false}, {"line_id": 13, "from_bus": 12, "to_bus": 13, "p_from_mw": 0.0, "q_from_mvar": 0.0, "loading_percent": 0.0, "is_violation": false}, {"line_id": 14, "from_bus": 13, "to_bus": 14, "p_from_mw": -12.570952724286952, "q_from_mvar": -5.400853763026047, "loading_percent": 0.1505808379359031, "is_violation": false}, {"line_id": 100000, "from_bus": 4, "to_bus": 7, "p_from_mw": 35.61050572590946, "q_from_mvar": -5.559842883314343, "loading_percent": 0.3593412750455978, "is_violation": false}, {"line_id": 100001, "from_bus": 4, "to_bus": 9, "p_from_mw": 20.297928946691883, "q_from_mvar": 3.3197151182381237, "loading_percent": 0.20506093846773057, "is_violation": false}, {"line_id": 100002, "from_bus": 5, "to_bus": 6, "p_from_mw": 35.61509046828687, "q_from_mvar": 10.82931671142143, "loading_percent": 0.36951180807525974, "is_violation": false}, {"line_id": 100003, "from_bus": 7, "to_bus": 8, "p_from_mw": 1.635307826548939e-14, "q_from_mvar": -24.06714840359549, "loading_percent": 0.2316123433287888, "is_violation": false}, {"line_id": 100004, "from_bus": 7, "to_bus": 9, "p_from_mw": 35.61050572590951, "q_from_mvar": 15.97592241090767, "loading_percent": 0.37560834551934763, "is_violation": false}], "total_generation_mw": 273.1440130707419, "total_load_mw": 257.9016499664761, "total_loss_mw": 15.242363104266296, "voltage_violations": [{"bus_id": 1, "vm_pu": 1.06, "va_deg": 0.0, "is_violation": true, "violation_type": "overvoltage"}, {"bus_id": 6, "vm_pu": 1.07, "va_deg": -13.168995151035, "is_violation": true, "violation_type": "overvoltage"}, {"bus_id": 8, "vm_pu": 1.09, "va_deg": -14.384338501607505, "is_violation": true, "violation_type": "overvoltage"}, {"bus_id": 12, "vm_pu": 1.0598406056306475, "va_deg": -13.80496074248316, "is_violation": true, "violation_type": "overvoltage"}, {"bus_id": 13, "vm_pu": 0.9177952034788057, "va_deg": -22.269000114693146, "is_violation": true, "violation_type": "undervoltage"}], "thermal_violations": [], "summary_text": "", "solver_backend": "pandapower", "llm_prompt": null, "llm_response": null}
[tool run_powerflow]   (gate: pass)
{"case_name": "case14", "converged": true, "bus_voltages": [{"bus_id": 1, "vm_pu": 1.06, "va_deg": 0.0, "is_violation": true, "violation_type": "overvoltage"}, {"bus_id": 2, "vm_pu": 1.0449999999999997, "va_deg": -5.117618104783695, "is_violation": false, "violation_type": null}, {"bus_id": 3, "vm_pu": 1.01, "va_deg": -12.753369686587481, "is_violation": false, "violation_type": null}, {"bus_id": 4, "vm_pu": 1.0131310249345016, "va_deg": -10.457148138236487, "is_violation": false, "violation_type": null}, {"bus_id": 5, "vm_pu": 1.0175891481597745, "va_deg": -8.762639522165806, "is_violation": false, "violation_type": null}, {"bus_id": 6, "vm_pu": 1.07, "va_deg": -13.168995151035, "is_violation": true, "violation_type": "overvoltage"}, {"bus_id": 7, "vm_pu": 1.0496094708654076, "va_deg": -14.384338501607505, "is_violation": false, "violation_type": null}, {"bus_id": 8, "vm_pu": 1.09, "va_deg": -14.384338501607505, "is_violation": true, "violation_type": "overvoltage"}, {"bus_id": 9, "vm_pu": 1.0335391805475238, "va_deg": -16.45387310256132, "is_violation": false, "violation_type": null}, {"bus_id": 10, "vm_pu": 1.0314655425976123, "va_deg": -16.161425713140538, "is_violation": false, "violation_type": null}, {"bus_id": 11, "vm_pu": 1.0460577695045876, "va_deg": -14.796006319940933, "is_violation": false, "violation_type": null}, {"bus_id": 12, "vm_pu": 1.0598406056306475, "va_deg": -13.80496074248316, "is_violation": true, "violation_type": "overvoltage"}, {"bus_id": 13, "vm_pu": 0.9177952034788057, "va_deg": -22.269000114693146, "is_violation": true, "violation_type": "undervoltage"}, {"bus_id": 14, "vm_pu": 0.9624220208464225, "va_deg": -20.029431481119147, "is_violation": false, "violation_type": null}], "line_flows": [{"line_id": 0, "from_bus": 1, "to_bus": 2, "p_from_mw": 160.9667542044341, "q_from_mvar": -21.353518098182995, "loading_percent": 1.54733117969357, "is_violation": false}, {"line_id": 1, "from_bus": 1, "to_bus": 5, "p_from_mw": 75.49377661227855, "q_from_mvar": 4.748601769407083, "loading_percent": 0.7220359136945435, "is_violation": false}, {"line_id": 2, "from_bus": 2, "to_bus": 3, "p_from_mw": 72.2757585440918, "q_from_mvar": 3.6555857878413636, "loading_percent": 0.7003047469799648, "is_violation": false}, {"line_id": 3, "from_bus": 2, "to_bus": 4, "p_from_mw": 56.791880792750185, "q_from_mvar": 0.9199839567134875, "loading_percent": 0.5491120283092377, "is_violation": false}, {"line_id": 4, "from_bus": 2, "to_bus": 5, "p_from_mw": 40.35183396647925, "q_from_mvar": 2.605335143030925, "loading_percent": 0.3936962439483265, "is_violation": false}, {"line_id": 5, "from_bus": 3, "to_bus": 4, "p_from_mw": -21.24595462262113, "q_from_mvar": 6.3027684945598486, "loading_percent": 0.22545288084853746, "is_violation": false}, {"line_id": 6, "from_bus": 4, "to_bus": 5, "p_from_mw": -68.56511823823486, "q_from_mvar": 12.081729941797642, "loading_percent": 0.6941321104882321, "is_violation": false}, {"line_id": 7, "from_bus": 6, "to_bus": 11, "p_from_mw": 18.107470181816467, "q_from_mvar": 4.4600101876494325, "loading_percent": 0.17604692294858287, "is_violation": false}, {"line_id": 8, "from_bus": 6, "to_bus": 12, "p_from_mw": 5.667095052353354, "q_from_mvar": 1.553880909736685, "loading_percent": 0.055473113002457934, "is_violation": false}, {"line_id": 9, "from_bus": 6, "to_bus": 13, "p_from_mw": 0.0, "q_from_mvar": 0.0, "loading_percent": 0.0, "is_violation": false}, {"line_id": 10, "from_bus": 9, "to_bus": 10, "p_from_mw": -4.798450350743586, "q_from_mvar": 4.359124124454975, "loading_percent": 0.06335815393703156, "is_violation": false}, {"line_id": 11, "from_bus": 9, "to_bus": 14, "p_from_mw": 29.533002000555037, "q_from_mvar": 14.01702556551949, "loading_percent": 0.3194925448210922, "is_violation": false}, {"line_id": 12, "from_bus": 10, "to_bus": 11, "p_from_mw": -14.093612054845996, "q_from_mvar": -1.6562712640844617, "loading_percent": 0.1389667327437521, "is_violation": false}, {"line_id": 13, "from_bus": 12, "to_bus": 13, "p_from_mw": 0.0, "q_from_mvar": 0.0, "loading_percent": 0.0, "is_violation": false}, {"line_id": 14, "from_bus": 13, "to_bus": 14, "p_from_mw": -12.570952724286952, "q_from_mvar": -5.400853763026047, "loading_percent": 0.1505808379359031, "is_violation": false}, {"line_id": 100000, "from_bus": 4, "to_bus": 7, "p_from_mw": 35.61050572590946, "q_from_mvar": -5.559842883314343, "loading_percent": 0.3593412750455978, "is_violation": false}, {"line_id": 100001, "from_bus": 4, "to_bus": 9, "p_from_mw": 20.297928946691883, "q_from_mvar": 3.3197151182381237, "loading_percent": 0.20506093846773057, "is_violation": false}, {"line_id": 100002, "from_bus": 5, "to_bus": 6, "p_from_mw": 35.61509046828687, "q_from_mvar": 10.82931671142143, "loading_percent": 0.36951180807525974, "is_violation": false}, {"line_id": 100003, "from_bus": 7, "to_bus": 8, "p_from_mw": 1.635307826548939e-14, "q_from_mvar": -24.06714840359549, "loading_percent": 0.2316123433287888, "is_violation": false}, {"line_id": 100004, "from_bus": 7, "to_bus": 9, "p_from_mw": 35.61050572590951, "q_from_mvar": 15.97592241090767, "loading_percent": 0.37560834551934763, "is_violation": false}], "total_generation_mw": 273.1440130707419, "total_load_mw": 257.9016499664761, "total_loss_mw": 15.242363104266296, "voltage_violations": [{"bus_id": 1, "vm_pu": 1.06, "va_deg": 0.0, "is_violation": true, "violation_type": "overvoltage"}, {"bus_id": 6, "vm_pu": 1.07, "va_deg": -13.168995151035, "is_violation": true, "violation_type": "overvoltage"}, {"bus_id": 8, "vm_pu": 1.09, "va_deg": -14.384338501607505, "is_violation": true, "violation_type": "overvoltage"}, {"bus_id": 12, "vm_pu": 1.0598406056306475, "va_deg": -13.80496074248316, "is_violation": true, "violation_type": "overvoltage"}, {"bus_id": 13, "vm_pu": 0.9177952034788057, "va_deg": -22.269000114693146, "is_violation": true, "violation_type": "undervoltage"}], "thermal_violations": [], "summary_text": "", "solver_backend": "pandapower", "llm_prompt": null, "llm_response": null}

[final answer]
Loaded case14 (14 buses, 20 branches).
disconnect_line: converged; load 257.902 MW, generation 272.102 MW, losses 14.200 MW; 5 voltage and 0 thermal violation(s).
disconnect_line: converged; load 257.902 MW, generation 273.144 MW, losses 15.242 MW; 5 voltage and 0 thermal violation(s).
run_powerflow: converged; load 257.902 MW, generation 273.144 MW, losses 15.242 MW; 5 voltage and 0 thermal violation(s).
No lines above 100% loading.
